Circuit: *** SPICE deck for cell 3input_andgate{sch} from library 3input_andgate

Vgnd: both pins shorted together -- ignoring.
Ignoring BSIM parameter XL
Ignoring BSIM parameter XW
Ignoring BSIM parameter XL
Ignoring BSIM parameter XW
Warning: Pd = 0 is less than W.
Warning: Ps = 0 is less than W.
Warning: Pd = 0 is less than W.
Warning: Ps = 0 is less than W.
Warning: Pd = 0 is less than W.
Warning: Ps = 0 is less than W.
Direct Newton iteration for .op point succeeded.

Date: Sat Dec 05 00:25:05 2015
Total elapsed time: 0.140 seconds.

tnom = 27
temp = 27
method = modified trap
totiter = 2111
traniter = 2082
tranpoints = 1042
accept = 1042
rejected = 0
matrix size = 12
fillins = 0
solver = Normal
Matrix Compiler1: 536 bytes object code size  0.3/0.2/[0.0]
Matrix Compiler2: off  [0.1]/0.2/0.4


