Circuit: *** SPICE deck for cell 4_input_ADD_SUB{sch} from library prova_library4_Nand_lay

Vgnd: both pins shorted together -- ignoring.
Ignoring BSIM parameter XL
Ignoring BSIM parameter XW
Ignoring BSIM parameter XL
Ignoring BSIM parameter XW
Warning: Pd = 0 is less than W.
Warning: Ps = 0 is less than W.
Warning: Pd = 0 is less than W.
Warning: Ps = 0 is less than W.
Warning: Pd = 0 is less than W.
Warning: Ps = 0 is less than W.
Warning: Pd = 0 is less than W.
Warning: Ps = 0 is less than W.
Direct Newton iteration failed to find .op point.  (Use ".option noopiter" to skip.)
Starting Gmin stepping
Gmin = 10
Gmin = 1.07374
Gmin = 0.115292
Gmin = 0.0123794
Gmin = 0.00132923
Gmin = 0.000142725
Gmin = 1.5325e-005
Gmin = 1.6455e-006
Gmin = 1.76685e-007
Gmin = 1.89714e-008
Gmin = 2.03704e-009
Gmin = 2.18725e-010
Gmin = 2.34854e-011
Gmin = 2.52173e-012
Gmin = 2.70769e-013
Gmin = 0
Gmin stepping succeeded in finding the operating point.


Date: Sun Dec 06 14:00:25 2015
Total elapsed time: 2.183 seconds.

tnom = 27
temp = 27
method = modified trap
totiter = 2564
traniter = 2083
tranpoints = 1042
accept = 1042
rejected = 0
matrix size = 174
fillins = 266
solver = Normal
Thread vector: 734.0/386.5[4] 152.5/93.2[4] 40.2/23.7[4] 3.3/4.1[1]  2592/500
Matrix Compiler1: 44.1 KB object code size  25.8/14.9/[7.4]
Matrix Compiler2: 27.1 KB object code size  12.3/11.0/[4.4]


