Circuit: *** SPICE deck for cell 4bitAdder{sch} from library prova_library4_Nand_lay

Vgnd: both pins shorted together -- ignoring.
Ignoring BSIM parameter XL
Ignoring BSIM parameter XW
Ignoring BSIM parameter XL
Ignoring BSIM parameter XW
Warning: Pd = 0 is less than W.
Warning: Ps = 0 is less than W.
Warning: Pd = 0 is less than W.
Warning: Ps = 0 is less than W.
Direct Newton iteration for .op point succeeded.

Date: Sun Nov 29 17:57:08 2015
Total elapsed time: 1.155 seconds.

tnom = 27
temp = 27
method = modified trap
totiter = 2127
traniter = 2082
tranpoints = 1042
accept = 1042
rejected = 0
matrix size = 239
fillins = 212
solver = Normal
Thread vector: 694.6/434.4[4] 193.2/61.6[4] 43.4/17.2[4] 3.5/2.5[3]  2592/500
Matrix Compiler1: 42.6 KB object code size  25.7/14.3/[7.2]
Matrix Compiler2: 34.3 KB object code size  10.5/10.8/[5.5]


