Circuit: *** SPICE deck for cell 4bit_Shift_Register{sch} from library prova_library4_Nand_lay

Vgnd: both pins shorted together -- ignoring.
Ignoring BSIM parameter XL
Ignoring BSIM parameter XW
Ignoring BSIM parameter XL
Ignoring BSIM parameter XW
Warning: Pd = 0 is less than W.
Warning: Ps = 0 is less than W.
Warning: Pd = 0 is less than W.
Warning: Ps = 0 is less than W.
Direct Newton iteration for .op point succeeded.

Date: Mon Nov 30 22:45:18 2015
Total elapsed time: 0.439 seconds.

tnom = 27
temp = 27
method = modified trap
totiter = 3890
traniter = 3848
tranpoints = 1383
accept = 1332
rejected = 51
matrix size = 42
fillins = 30
solver = Normal
Thread vector: 113.6/66.6[4] 35.5/20.7[4] 7.3/4.3[4] 0.5/1.0[1]  2592/500
Matrix Compiler1: 6.10 KB object code size  3.6/2.3/[0.9]
Matrix Compiler2: 5.56 KB object code size  1.3/1.6/[0.8]


