Circuit: *** SPICE deck for cell 4input_andgate{lay} from library 4input_andgate

Vgnd: both pins shorted together -- ignoring.
Ignoring BSIM parameter XL
Ignoring BSIM parameter XW
Ignoring BSIM parameter XL
Ignoring BSIM parameter XW
Direct Newton iteration for .op point succeeded.

Date: Mon Dec 14 10:29:44 2015
Total elapsed time: 0.749 seconds.

tnom = 27
temp = 27
method = modified trap
totiter = 2096
traniter = 2082
tranpoints = 1042
accept = 1042
rejected = 0
matrix size = 113
fillins = 86
solver = Normal
Thread vector: 44.7/31.9[4] 47.7/30.0[4] 3.2/4.0[1] 2.1/3.2[1]  2592/500
Matrix Compiler1: 9.37 KB object code size  7.8/6.3/[4.3]
Matrix Compiler2: 9.85 KB object code size  3.0/5.6/[3.1]


