Circuit: *** SPICE deck for cell 4inputlogic{sch} from library hw4_4

Ignoring BSIM parameter XL
Ignoring BSIM parameter XW
Ignoring BSIM parameter XL
Ignoring BSIM parameter XW
Limiting rise time of source vind to 5e-010
Limiting fall time of source vind to 5e-010
Warning: Pd = 0 is less than W.
Warning: Ps = 0 is less than W.
Warning: Pd = 0 is less than W.
Warning: Ps = 0 is less than W.
Direct Newton iteration for .op point succeeded.

Date: Wed Nov 04 22:39:24 2015
Total elapsed time: 0.092 seconds.

tnom = 27
temp = 27
method = modified trap
totiter = 2630
traniter = 2609
tranpoints = 1172
accept = 1143
rejected = 29
matrix size = 14
fillins = 0
solver = Normal
Matrix Compiler1: 636 bytes object code size  0.2/0.1/[0.1]
Matrix Compiler2: off  [0.2]/0.2/0.2


