Circuit: *** SPICE deck for cell 6input_andgate{sch} from library 4input_andgate

Vgnd: both pins shorted together -- ignoring.
Ignoring BSIM parameter XL
Ignoring BSIM parameter XW
Ignoring BSIM parameter XL
Ignoring BSIM parameter XW
Warning: Pd = 0 is less than W.
Warning: Ps = 0 is less than W.
Warning: Pd = 0 is less than W.
Warning: Ps = 0 is less than W.
Direct Newton iteration for .op point succeeded.

Date: Mon Dec 14 10:28:04 2015
Total elapsed time: 0.297 seconds.

tnom = 27
temp = 27
method = modified trap
totiter = 2097
traniter = 2082
tranpoints = 1042
accept = 1042
rejected = 0
matrix size = 21
fillins = 0
solver = Normal
Matrix Compiler1: 1.03 KB object code size  1.9/0.8/[0.3]
Matrix Compiler2: off  [0.9]/1.4/1.4


