Circuit: *** SPICE deck for cell 8bit_adder{sch} from library prova_library4_Nand_lay

