Circuit: *** SPICE deck for cell complex_logic_function{sch} from library Project2

Vgnd: both pins shorted together -- ignoring.
Ignoring BSIM parameter XL
Ignoring BSIM parameter XW
Ignoring BSIM parameter XL
Ignoring BSIM parameter XW
Warning: Pd = 0 is less than W.
Warning: Ps = 0 is less than W.
Warning: Pd = 0 is less than W.
Warning: Ps = 0 is less than W.
Direct Newton iteration for .op point succeeded.

Date: Wed Oct 28 22:35:11 2015
Total elapsed time: 0.234 seconds.

tnom = 27
temp = 27
method = modified trap
totiter = 3178
traniter = 3137
tranpoints = 1218
accept = 1159
rejected = 59
matrix size = 19
fillins = 4
solver = Normal
Matrix Compiler1: 1.58 KB object code size  0.8/0.4/[0.2]
Matrix Compiler2: off  [0.2]/0.5/0.8


