Circuit: *** SPICE deck for cell D_flipflop{sch} from library prova_library4_Nand_lay

Vgnd: both pins shorted together -- ignoring.
Ignoring BSIM parameter XL
Ignoring BSIM parameter XW
Ignoring BSIM parameter XL
Ignoring BSIM parameter XW
Warning: Pd = 0 is less than W.
Warning: Ps = 0 is less than W.
Warning: Pd = 0 is less than W.
Warning: Ps = 0 is less than W.
Direct Newton iteration for .op point succeeded.

Date: Mon Nov 30 22:43:24 2015
Total elapsed time: 0.235 seconds.

tnom = 27
temp = 27
method = modified trap
totiter = 3510
traniter = 3488
tranpoints = 1374
accept = 1325
rejected = 49
matrix size = 15
fillins = 0
solver = Normal
Matrix Compiler1: 1.13 KB object code size  0.6/0.3/[0.1]
Matrix Compiler2: off  [0.2]/0.5/0.4


