Circuit: *** SPICE deck for cell Dynamic4InputNand{lay} from library prova_library4_Nand_lay

Vgnd: both pins shorted together -- ignoring.
Ignoring BSIM parameter XL
Ignoring BSIM parameter XW
Ignoring BSIM parameter XL
Ignoring BSIM parameter XW
Direct Newton iteration for .op point succeeded.

Date: Sun Nov 08 17:25:40 2015
Total elapsed time: 0.120 seconds.

tnom = 27
temp = 27
method = modified trap
totiter = 2434
traniter = 2424
tranpoints = 1136
accept = 1112
rejected = 24
matrix size = 17
fillins = 0
solver = Normal
Matrix Compiler1: 678 bytes object code size  0.6/0.2/[0.1]
Matrix Compiler2: off  [0.3]/0.4/0.3


