Circuit: *** SPICE deck for cell Homework5{sch} from library prova_library2_IRSIM

Vgnd: both pins shorted together -- ignoring.
Ignoring BSIM parameter XL
Ignoring BSIM parameter XW
Ignoring BSIM parameter XL
Ignoring BSIM parameter XW
WARNING: Node NMOS-4@2_B is floating.

WARNING: Less than two connections to node NMOS-4@2_B.  This node is used by MNMOS-4@2.
Warning: Pd = 0 is less than W.
Warning: Ps = 0 is less than W.
Warning: Pd = 0 is less than W.
Warning: Ps = 0 is less than W.
Direct Newton iteration for .op point succeeded.

Date: Fri Nov 20 00:05:03 2015
Total elapsed time: 0.203 seconds.

tnom = 27
temp = 27
method = modified trap
totiter = 3916
traniter = 3899
tranpoints = 1563
accept = 1490
rejected = 73
matrix size = 17
fillins = 2
solver = Normal
Matrix Compiler1: 820 bytes object code size  1.0/0.7/[0.3]
Matrix Compiler2: 1.42 KB object code size  0.7/0.9/[0.6]


