Circuit: *** SPICE deck for cell Homework5_1{lay} from library prova_library2_IRSIM

Vgnd: both pins shorted together -- ignoring.
Ignoring BSIM parameter XL
Ignoring BSIM parameter XW
Ignoring BSIM parameter XL
Ignoring BSIM parameter XW
WARNING: Less than two connections to node NET@0.  This node is used by MNMOS@4.
WARNING: Less than two connections to node NET@66.  This node is used by MNMOS@10.
Direct Newton iteration for .op point succeeded.

Date: Thu Nov 19 15:20:10 2015
Total elapsed time: 0.230 seconds.

tnom = 27
temp = 27
method = modified trap
totiter = 2769
traniter = 2741
tranpoints = 1192
accept = 1169
rejected = 23
matrix size = 23
fillins = 0
solver = Normal
Matrix Compiler1: 1.13 KB object code size  0.9/0.6/[0.3]
Matrix Compiler2: off  [0.5]/0.6/1.0


