Circuit: *** SPICE deck for cell hw5{lay} from library hw5

Ignoring BSIM parameter XL
Ignoring BSIM parameter XW
Ignoring BSIM parameter XL
Ignoring BSIM parameter XW
Limiting rise time of source vind to 5e-010
Limiting fall time of source vind to 5e-010
Limiting rise time of source vinclock to 5e-010
Limiting fall time of source vinclock to 5e-010
WARNING: Less than two connections to node VSS.  This node is used by VSS.
Direct Newton iteration for .op point succeeded.

Date: Wed Nov 18 01:51:03 2015
Total elapsed time: 0.128 seconds.

tnom = 27
temp = 27
method = modified trap
totiter = 2546
traniter = 2520
tranpoints = 1155
accept = 1127
rejected = 28
matrix size = 23
fillins = 2
solver = Normal
Matrix Compiler1: 1.30 KB object code size  0.5/0.3/[0.1]
Matrix Compiler2: off  [0.3]/0.3/0.4


