Circuit: *** SPICE deck for cell hwsix_cascade{sch} from library prova_library2_IRSIM

Vgnd: both pins shorted together -- ignoring.
Ignoring BSIM parameter XL
Ignoring BSIM parameter XW
WARNING: Node NET@96 is floating.

Warning: Pd = 0 is less than W.
Warning: Ps = 0 is less than W.
Warning: Pd = 0 is less than W.
Warning: Ps = 0 is less than W.
Direct Newton iteration for .op point succeeded.

Date: Mon Nov 30 21:18:55 2015
Total elapsed time: 0.234 seconds.

tnom = 27
temp = 27
method = modified trap
totiter = 5350
traniter = 5311
tranpoints = 1659
accept = 1585
rejected = 74
matrix size = 21
fillins = 6
solver = Normal
Matrix Compiler1: 1.40 KB object code size  0.6/0.4/[0.3]
Matrix Compiler2: off  [0.3]/0.5/0.6


