Circuit: *** SPICE deck for cell hwsix{lay} from library prova_library2_IRSIM

Vgnd: both pins shorted together -- ignoring.
Ignoring BSIM parameter XL
Ignoring BSIM parameter XW
Ignoring BSIM parameter XL
Ignoring BSIM parameter XW
WARNING: Less than two connections to node NET@10.  This node is used by MNMOS@3.
Direct Newton iteration for .op point succeeded.

Date: Wed Dec 02 21:25:25 2015
Total elapsed time: 0.202 seconds.

tnom = 27
temp = 27
method = modified trap
totiter = 5530
traniter = 5513
tranpoints = 2060
accept = 1954
rejected = 106
matrix size = 17
fillins = 0
solver = Normal
Matrix Compiler1: 624 bytes object code size  0.3/0.2/[0.0]
Matrix Compiler2: off  [0.2]/0.3/0.3


