Circuit: *** SPICE deck for cell hwsix_second_part{sch} from library prova_library2_IRSIM

Vgnd: both pins shorted together -- ignoring.
Ignoring BSIM parameter XL
Ignoring BSIM parameter XW
WARNING: Node NET@104 is floating.

Warning: Pd = 0 is less than W.
Warning: Ps = 0 is less than W.
Warning: Pd = 0 is less than W.
Warning: Ps = 0 is less than W.
Direct Newton iteration for .op point succeeded.

Date: Wed Dec 02 21:51:26 2015
Total elapsed time: 0.173 seconds.

tnom = 27
temp = 27
method = modified trap
totiter = 2298
traniter = 2274
tranpoints = 1073
accept = 1071
rejected = 2
matrix size = 24
fillins = 0
solver = Normal
Matrix Compiler1: 1.02 KB object code size  0.7/0.4/[0.2]
Matrix Compiler2: off  [0.4]/0.7/0.8


