Circuit: *** SPICE deck for cell hwsix_cas{sch} from library prova_library2_IRSIM

Vgnd: both pins shorted together -- ignoring.
Ignoring BSIM parameter XL
Ignoring BSIM parameter XW
Warning: Pd = 0 is less than W.
Warning: Ps = 0 is less than W.
Warning: Pd = 0 is less than W.
Warning: Ps = 0 is less than W.
Direct Newton iteration for .op point succeeded.

Date: Mon Nov 30 19:12:28 2015
Total elapsed time: 0.372 seconds.

tnom = 27
temp = 27
method = modified trap
totiter = 8971
traniter = 8932
tranpoints = 2201
accept = 2097
rejected = 104
matrix size = 20
fillins = 0
solver = Normal
Matrix Compiler1: 1006 bytes object code size  0.5/0.3/[0.1]
Matrix Compiler2: off  [0.3]/0.5/0.7


