Circuit: *** SPICE deck for cell Inv_20_10_conn{ic} from library CMOSedu_3

Vgnd: both pins shorted together -- ignoring.
WARNING: Less than two connections to node VDD.  This node is used by VDD.
WARNING: Less than two connections to node IN.  This node is used by VIN.

Date: Tue Sep 08 23:02:57 2015
Total elapsed time: 0.100 seconds.

tnom = 27
temp = 27
method = trap
totiter = 10003
traniter = 0
tranpoints = 0
accept = 0
rejected = 0
matrix size = 4
fillins = 0
solver = Normal
Matrix Compiler1: 46 bytes object code size  0.1/0.0/[0.0]
Matrix Compiler2: 160 bytes object code size  0.1/0.1/[0.0]


