Circuit: *** SPICE deck for cell inverter_video_sim{sch} from library ProvaVideo1

Vgnd: both pins shorted together -- ignoring.
Ignoring BSIM parameter XL
Ignoring BSIM parameter XW
Ignoring BSIM parameter XL
Ignoring BSIM parameter XW
WARNING: Node NET@0 is floating.

WARNING: Less than two connections to node IN.  This node is used by VIN.
Warning: Pd = 0 is less than W.
Warning: Ps = 0 is less than W.
Warning: Pd = 0 is less than W.
Warning: Ps = 0 is less than W.

Date: Wed Sep 23 10:35:24 2015
Total elapsed time: 0.100 seconds.

tnom = 27
temp = 27
method = trap
totiter = 10006
traniter = 0
tranpoints = 0
accept = 0
rejected = 0
matrix size = 6
fillins = 0
solver = Normal
Matrix Compiler1: 164 bytes object code size  0.1/0.0/[0.0]
Matrix Compiler2: 354 bytes object code size  0.1/0.1/[0.1]


