Circuit: *** SPICE deck for cell inverter_videos{ic} from library ProvaVideo

Vgnd: both pins shorted together -- ignoring.
WARNING: Less than two connections to node VDD.  This node is used by VDD.
WARNING: Less than two connections to node IN.  This node is used by VIN.

Date: Wed Sep 23 12:03:34 2015
Total elapsed time: 0.075 seconds.

tnom = 27
temp = 27
method = trap
totiter = 10003
traniter = 0
tranpoints = 0
accept = 0
rejected = 0
matrix size = 4
fillins = 0
solver = Normal
Matrix Compiler1: off  [0.0]/0.0/0.0
Matrix Compiler2: 160 bytes object code size  0.1/0.0/[0.0]


