Circuit: *** SPICE deck for cell inverter_videos_sim{sch} from library ProvaVideo2

Vgnd: both pins shorted together -- ignoring.
Ignoring BSIM parameter XL
Ignoring BSIM parameter XW
Ignoring BSIM parameter XL
Ignoring BSIM parameter XW
Warning: Pd = 0 is less than W.
Warning: Ps = 0 is less than W.
Warning: Pd = 0 is less than W.
Warning: Ps = 0 is less than W.

Date: Wed Sep 23 12:20:11 2015
Total elapsed time: 0.100 seconds.

tnom = 27
temp = 27
method = trap
totiter = 10006
traniter = 0
tranpoints = 0
accept = 0
rejected = 0
matrix size = 5
fillins = 0
solver = Normal
Matrix Compiler1:      12 opcodes  0.2/[0.0]/0.1
Matrix Compiler2: 311 bytes object code size  0.0/0.1/[0.0]


