Circuit: *** SPICE deck for cell inverter_sim{sch} from library prova_library2_IRSIM

Vgnd: both pins shorted together -- ignoring.
Ignoring BSIM parameter XL
Ignoring BSIM parameter XW
Ignoring BSIM parameter XL
Ignoring BSIM parameter XW
Warning: Pd = 0 is less than W.
Warning: Ps = 0 is less than W.
Warning: Pd = 0 is less than W.
Warning: Ps = 0 is less than W.
Direct Newton iteration for .op point succeeded.

Date: Tue Oct 13 22:11:22 2015
Total elapsed time: 0.185 seconds.

tnom = 27
temp = 27
method = modified trap
totiter = 2285
traniter = 2272
tranpoints = 1131
accept = 1107
rejected = 24
matrix size = 5
fillins = 0
solver = Normal
Matrix Compiler1: 132 bytes object code size  0.1/0.1/[0.0]
Matrix Compiler2: off  [0.1]/0.1/0.1


