Circuit: *** SPICE deck for cell inverter{sch} from library prova_library2_IRSIM

