Circuit: *** SPICE deck for cell inverter_sim_lay{lay} from library EE4570_3

Vgnd: both pins shorted together -- ignoring.
Ignoring BSIM parameter XL
Ignoring BSIM parameter XW
Ignoring BSIM parameter XL
Ignoring BSIM parameter XW
WARNING: Node NET@1 is floating.
WARNING: Node NET@0 is floating.

WARNING: Less than two connections to node VDD.  This node is used by VDD.
WARNING: Less than two connections to node IN.  This node is used by VIN.
Singular matrix:  Check node net@0
   Iteration No. 1
Direct Newton iteration failed to find .op point.  (Use ".option noopiter" to skip.)
Starting Gmin stepping
Gmin = 10
Gmin = 1.07374
Gmin = 0.115292
Gmin = 0.0123794
Gmin = 0.00132923
Gmin = 0.000142725
Gmin = 1.5325e-005
Gmin = 1.6455e-006
Gmin = 1.76685e-007
Gmin = 1.89714e-008
Gmin = 2.03704e-009
Gmin = 2.18725e-010
Gmin = 2.34854e-011
Gmin = 2.52173e-012
Gmin = 2.70769e-013
Singular matrix:  Check node net@0
   Iteration No. 2
Gmin = 0
Singular matrix:  Check node net@0
   Iteration No. 1
Gmin stepping failed

Starting source stepping with srcstepmethod=0
Singular matrix:  Check node net@0
   Iteration No. 1
Singular matrix:  Check node net@0
   Iteration No. 2
Could not converge to DC with sources off!
Starting source stepping with srcstepmethod=1
Singular matrix:  Check node net@0
   Iteration No. 1
Source Step = 3.0303%
Source Step = 33.3333%
Source Step = 63.6364%
Source Step = 93.9394%
Source stepping succeeded in finding the operating point.

Ignoring empty pin current: Ix(inverter@0:out)
Ignoring empty pin current: Ix(inverter@0:out)

Date: Mon Sep 21 23:33:01 2015
Total elapsed time: 0.090 seconds.

tnom = 27
temp = 27
method = modified trap
totiter = 2946
traniter = 2154
tranpoints = 1078
accept = 1070
rejected = 8
matrix size = 8
fillins = 0
solver = Normal
Matrix Compiler1: 370 bytes object code size  0.2/0.1/[0.1]
Matrix Compiler2: 486 bytes object code size  0.1/0.2/[0.0]


