Circuit: *** SPICE deck for cell inverter_sim_Series{lay} from library prova_library2_IRSIM

Vgnd: both pins shorted together -- ignoring.
Ignoring BSIM parameter XL
Ignoring BSIM parameter XW
Ignoring BSIM parameter XL
Ignoring BSIM parameter XW
Direct Newton iteration for .op point succeeded.

Date: Thu Oct 22 14:51:03 2015
Total elapsed time: 0.186 seconds.

tnom = 27
temp = 27
method = modified trap
totiter = 2357
traniter = 2346
tranpoints = 1130
accept = 1102
rejected = 28
matrix size = 8
fillins = 0
solver = Normal
Matrix Compiler1: 318 bytes object code size  0.5/0.3/[0.1]
Matrix Compiler2: 544 bytes object code size  0.3/0.4/[0.3]


