Circuit: *** SPICE deck for cell MUX{sch} from library prova_library2_IRSIM

Vgnd: both pins shorted together -- ignoring.
Ignoring BSIM parameter XL
Ignoring BSIM parameter XW
Ignoring BSIM parameter XL
Ignoring BSIM parameter XW
Warning: Pd = 0 is less than W.
Warning: Ps = 0 is less than W.
Warning: Pd = 0 is less than W.
Warning: Ps = 0 is less than W.
Direct Newton iteration for .op point succeeded.

Date: Sun Nov 29 18:32:22 2015
Total elapsed time: 0.376 seconds.

tnom = 27
temp = 27
method = modified trap
totiter = 2094
traniter = 2082
tranpoints = 1042
accept = 1042
rejected = 0
matrix size = 34
fillins = 8
solver = Normal
Thread vector: 82.2/42.9[3] 18.0/9.8[3] 4.1/2.9[2] 0.7/0.7[1]  2592/500
Matrix Compiler1: 2.91 KB object code size  1.7/1.0/[0.5]
Matrix Compiler2: off  [0.8]/1.0/0.8


