Circuit: *** SPICE deck for cell NAND_sim{sch} from library prova_library4_Nand_lay

Vgnd: both pins shorted together -- ignoring.
Ignoring BSIM parameter XL
Ignoring BSIM parameter XW
Ignoring BSIM parameter XL
Ignoring BSIM parameter XW
WARNING: Less than two connections to node B.  This node is used by VB.
Warning: Pd = 0 is less than W.
Warning: Ps = 0 is less than W.
Warning: Pd = 0 is less than W.
Warning: Ps = 0 is less than W.
Direct Newton iteration for .op point succeeded.

Date: Tue Oct 13 15:34:19 2015
Total elapsed time: 0.125 seconds.

tnom = 27
temp = 27
method = modified trap
totiter = 2122
traniter = 2111
tranpoints = 1054
accept = 1052
rejected = 2
matrix size = 8
fillins = 0
solver = Normal
Matrix Compiler1: 246 bytes object code size  0.4/0.2/[0.1]
Matrix Compiler2: off  [0.3]/0.3/0.7


