Circuit: *** SPICE deck for cell NOR{ic} from library prova_library4_Nand_lay

Vgnd: both pins shorted together -- ignoring.
WARNING: Less than two connections to node VDD.  This node is used by VDD.
WARNING: Less than two connections to node B.  This node is used by VB.
WARNING: Less than two connections to node A.  This node is used by VA.
Direct Newton iteration for .op point succeeded.

Date: Wed Dec 02 17:45:32 2015
Total elapsed time: 0.187 seconds.

tnom = 27
temp = 27
method = modified trap
totiter = 2085
traniter = 2082
tranpoints = 1042
accept = 1042
rejected = 0
matrix size = 6
fillins = 0
solver = Normal
Matrix Compiler1: 74 bytes object code size  0.0/0.1/[0.0]
Matrix Compiler2: 238 bytes object code size  0.1/0.1/[0.0]


