Circuit: *** SPICE deck for cell Or_4inputs{lay} from library prova_library4_Nand_lay

