Circuit: *** SPICE deck for cell Or_5inputs{lay} from library prova_library4_Nand_lay

Vgnd: both pins shorted together -- ignoring.
Ignoring BSIM parameter XL
Ignoring BSIM parameter XW
Ignoring BSIM parameter XL
Ignoring BSIM parameter XW
Direct Newton iteration for .op point succeeded.

Date: Thu Dec 03 16:19:14 2015
Total elapsed time: 0.203 seconds.

tnom = 27
temp = 27
method = modified trap
totiter = 2111
traniter = 2082
tranpoints = 1042
accept = 1042
rejected = 0
matrix size = 18
fillins = 0
solver = Normal
Matrix Compiler1: 872 bytes object code size  0.6/0.4/[0.1]
Matrix Compiler2: off  [0.4]/0.5/0.9


