Circuit: *** SPICE deck for cell Or_6inputs{sch} from library prova_library4_Nand_lay

Vgnd: both pins shorted together -- ignoring.
Ignoring BSIM parameter XL
Ignoring BSIM parameter XW
Ignoring BSIM parameter XL
Ignoring BSIM parameter XW
Warning: Pd = 0 is less than W.
Warning: Ps = 0 is less than W.
Warning: Pd = 0 is less than W.
Warning: Ps = 0 is less than W.
Direct Newton iteration for .op point succeeded.

Date: Sun Dec 13 18:05:16 2015
Total elapsed time: 0.194 seconds.

tnom = 27
temp = 27
method = modified trap
totiter = 2091
traniter = 2082
tranpoints = 1042
accept = 1042
rejected = 0
matrix size = 21
fillins = 0
solver = Normal
Matrix Compiler1: 914 bytes object code size  0.6/0.3/[0.2]
Matrix Compiler2: off  [0.3]/0.5/0.4


