Circuit: *** SPICE deck for cell Problem4{lay} from library prova_library2_IRSIM

Vgnd: both pins shorted together -- ignoring.
Ignoring BSIM parameter XL
Ignoring BSIM parameter XW
Ignoring BSIM parameter XL
Ignoring BSIM parameter XW
WARNING: Less than two connections to node NET@6.  This node is used by MPMOS@0.
Direct Newton iteration for .op point succeeded.

Date: Sun Nov 08 14:53:49 2015
Total elapsed time: 0.232 seconds.

tnom = 27
temp = 27
method = modified trap
totiter = 2448
traniter = 2423
tranpoints = 1136
accept = 1125
rejected = 11
matrix size = 15
fillins = 0
solver = Normal
Matrix Compiler1: 650 bytes object code size  0.4/0.2/[0.1]
Matrix Compiler2: off  [0.2]/0.3/0.5


