Circuit: *** SPICE deck for cell Tri_State_Buffer{sch} from library prova_library4_Nand_lay

Vgnd: both pins shorted together -- ignoring.
Ignoring BSIM parameter XL
Ignoring BSIM parameter XW
Ignoring BSIM parameter XL
Ignoring BSIM parameter XW
Warning: Pd = 0 is less than W.
Warning: Ps = 0 is less than W.
Warning: Pd = 0 is less than W.
Warning: Ps = 0 is less than W.
Warning: Pd = 0 is less than W.
Warning: Ps = 0 is less than W.
Warning: Pd = 0 is less than W.
Warning: Ps = 0 is less than W.
Direct Newton iteration for .op point succeeded.

Date: Sat Dec 05 12:13:58 2015
Total elapsed time: 0.156 seconds.

tnom = 27
temp = 27
method = modified trap
totiter = 2101
traniter = 2082
tranpoints = 1042
accept = 1042
rejected = 0
matrix size = 13
fillins = 0
solver = Normal
Matrix Compiler1: 738 bytes object code size  0.5/0.3/[0.1]
Matrix Compiler2:      97 opcodes  0.3/[0.3]/0.4


