Circuit: *** SPICE deck for cell 1bitADDER{ic} from library Indipendent_Study

Vgnd: both pins shorted together -- ignoring.
WARNING: Less than two connections to node VDD.  This node is used by VDD.
WARNING: Less than two connections to node A.  This node is used by VA.
WARNING: Less than two connections to node B.  This node is used by VB.
WARNING: Less than two connections to node CIN.  This node is used by VCIN.
Direct Newton iteration for .op point succeeded.

Date: Thu Jul 27 11:34:46 2017
Total elapsed time: 0.120 seconds.

tnom = 27
temp = 27
method = modified trap
totiter = 2157
traniter = 2154
tranpoints = 1078
accept = 1070
rejected = 8
matrix size = 8
fillins = 0
solver = Normal
Matrix Compiler1: 102 bytes object code size  0.1/0.1/[0.0]
Matrix Compiler2: 316 bytes object code size  0.2/0.1/[0.0]

