Circuit: *** SPICE deck for cell 1bitAdderSubb{sch} from library Indipendent_Study

Vgnd: both pins shorted together -- ignoring.
Ignoring BSIM parameter XL
Ignoring BSIM parameter XW
Ignoring BSIM parameter XL
Ignoring BSIM parameter XW
Warning: Pd = 0 is less than W.
Warning: Ps = 0 is less than W.
Warning: Pd = 0 is less than W.
Warning: Ps = 0 is less than W.
Direct Newton iteration for .op point succeeded.

Date: Thu Jul 27 14:28:01 2017
Total elapsed time: 0.990 seconds.

tnom = 27
temp = 27
method = modified trap
totiter = 5273
traniter = 5242
tranpoints = 1739
accept = 1531
rejected = 208
matrix size = 42
fillins = 22
solver = Normal
Thread vector: 141.1/54.4[4] 25.7/9.8[4] 4.7/2.8[3] 0.7/4.7[1]  2592/500
Matrix Compiler1: 5.67 KB object code size  3.4/2.1/[1.3]
Matrix Compiler2: 5.53 KB object code size  1.3/2.5/[0.7]

