Circuit: *** SPICE deck for cell facet

Expanding empty subcircuit: muddpads11_ami05__pad_corner
Expanding empty subcircuit: muddpads11_ami05__pad_corner
Expanding empty subcircuit: muddpads11_ami05__pad_corner
Expanding empty subcircuit: muddpads11_ami05__pad_corner
Expanding empty subcircuit: muddpads11_ami05__pad_corner
Expanding empty subcircuit: muddpads11_ami05__pad_corner
Expanding empty subcircuit: muddpads11_ami05__pad_corner
