Circuit: *** SPICE deck for cell inverter_sim{sch} from library Indipendent_Study

Vgnd: both pins shorted together -- ignoring.
Ignoring BSIM parameter XL
Ignoring BSIM parameter XW
Ignoring BSIM parameter XL
Ignoring BSIM parameter XW
Warning: Pd = 0 is less than W.
Warning: Ps = 0 is less than W.
Warning: Pd = 0 is less than W.
Warning: Ps = 0 is less than W.
Direct Newton iteration for .op point succeeded.

Date: Thu Jul 27 11:10:14 2017
Total elapsed time: 0.437 seconds.

tnom = 27
temp = 27
method = modified trap
totiter = 2560
traniter = 2548
tranpoints = 1193
accept = 1154
rejected = 39
matrix size = 5
fillins = 0
solver = Normal
Matrix Compiler1: 204 bytes object code size  0.2/0.1/[0.1]
Matrix Compiler2: off  [0.1]/0.2/0.2

