Circuit: *** SPICE deck for cell pad{sch} from library Indipendent_Study

WARNING: Less than two connections to node VDD.  This node is used by VDD.
WARNING: Less than two connections to node IN.  This node is used by VIN.

Date: Sun Jul 23 13:26:24 2017
Total elapsed time: 0.190 seconds.

tnom = 27
temp = 27
method = trap
totiter = 10003
traniter = 0
tranpoints = 0
accept = 0
rejected = 0
matrix size = 4
fillins = 0
solver = Normal
Matrix Compiler1: 46 bytes object code size  0.0/0.0/[0.0]
Matrix Compiler2: 160 bytes object code size  0.0/0.1/[0.0]

