Circuit: *** SPICE deck for cell PadRef{lay} from library Indipendent_Study

Expanding empty subcircuit: indipendent_study__pad
Vgnd: both pins shorted together -- ignoring.
Ignoring BSIM parameter XL
Ignoring BSIM parameter XW
Ignoring BSIM parameter XL
Ignoring BSIM parameter XW
Direct Newton iteration for .op point succeeded.

Date: Sun Jul 23 22:00:46 2017
Total elapsed time: 0.172 seconds.

tnom = 27
temp = 27
method = modified trap
totiter = 2399
traniter = 2394
tranpoints = 1182
accept = 1168
rejected = 14
matrix size = 5
fillins = 0
solver = Normal
Matrix Compiler1: 114 bytes object code size  0.0/0.1/[0.0]
Matrix Compiler2: off  [0.0]/0.1/0.1

